@<TRIPOS>MOLECULE
    MOL
   21    22     0     0     0
SMALL
USER_CHARGES

@<TRIPOS>ATOM
      1 O          83.6800   68.4600   -9.9200 O.co2    1 MOL      -0.5498
      2 O1         84.8000   67.4500   -8.2300 O.co2    1 MOL      -0.5498
      3 N          79.7300   69.5500   -9.7100 N.pl3    1 MOL      -0.3203
      4 C          80.5100   67.4600   -9.8800 C.ar     1 MOL       0.0006
      5 C1         81.2600   68.1600   -8.8900 C.2      1 MOL      -0.0194
      6 C2         79.5600   68.3500  -10.3800 C.ar     1 MOL       0.0374
      7 C3         80.7600   69.4400   -8.8100 C.2      1 MOL      -0.0030
      8 C4         82.3800   67.6200   -8.0900 C.3      1 MOL       0.0140
      9 C5         80.5500   66.1500  -10.4000 C.ar     1 MOL      -0.0528
     10 C6         78.6500   68.0000  -11.3800 C.ar     1 MOL      -0.0402
     11 C7         79.6400   65.7900  -11.4000 C.ar     1 MOL      -0.0615
     12 C8         78.7100   66.7000  -11.8800 C.ar     1 MOL      -0.0604
     13 C9         83.7500   67.8200   -8.7200 C.2      1 MOL       0.0458
     14 H          79.2000   70.3600   -9.8600 H        1 MOL       0.1522
     15 H1         81.1000   70.1900   -8.1800 H        1 MOL       0.0793
     16 H2         82.2200   66.5700   -7.9500 H        1 MOL       0.0379
     17 H3         82.3800   68.1600   -7.1600 H        1 MOL       0.0379
     18 H4         81.2500   65.4700  -10.0500 H        1 MOL       0.0630
     19 H5         77.9500   68.6800  -11.7300 H        1 MOL       0.0643
     20 H6         79.6700   64.8300  -11.7800 H        1 MOL       0.0623
     21 H7         78.0400   66.4100  -12.6100 H        1 MOL       0.0623
@<TRIPOS>BOND
     1     1    13    1
     2     2    13    1
     3     3     6    1
     4     3     7    1
     5     3    14    1
     6     4     5    1
     7     4     6   ar
     8     4     9   ar
     9     5     7    2
    10     5     8    1
    11     6    10   ar
    12     7    15    1
    13     8    13    1
    14     8    16    1
    15     8    17    1
    16     9    11   ar
    17     9    18    1
    18    10    12   ar
    19    10    19    1
    20    11    12   ar
    21    11    20    1
    22    12    21    1
