@<TRIPOS>MOLECULE
    MOL
   21    22     0     0     0
SMALL
USER_CHARGES

@<TRIPOS>ATOM
      1 O          83.6600   67.8700  -10.0700 O.co2    1 MOL1      -0.5498
      2 O1         84.3000   66.2700   -8.5900 O.co2    1 MOL1      -0.5498
      3 N          79.7000   69.5600   -9.7100 N.pl3    1 MOL1      -0.3203
      4 C          80.4800   67.4800   -9.8800 C.ar     1 MOL1       0.0006
      5 C1         81.2300   68.1800   -8.8900 C.2      1 MOL1      -0.0194
      6 C2         79.5300   68.3700  -10.3800 C.ar     1 MOL1       0.0374
      7 C3         80.7300   69.4500   -8.8100 C.2      1 MOL1      -0.0030
      8 C4         82.3500   67.6400   -8.0900 C.3      1 MOL1       0.0140
      9 C5         80.5200   66.1700  -10.4000 C.ar     1 MOL1      -0.0528
     10 C6         78.6200   68.0200  -11.3800 C.ar     1 MOL1      -0.0402
     11 C7         79.6100   65.8000  -11.4000 C.ar     1 MOL1      -0.0615
     12 C8         78.6800   66.7100  -11.8800 C.ar     1 MOL1      -0.0604
     13 C9         83.5300   67.1700   -8.9100 C.2      1 MOL1       0.0458
     14 H          79.1700   70.3700   -9.8600 H        1 MOL1       0.1522
     15 H1         81.0700   70.2000   -8.1800 H        1 MOL1       0.0793
     16 H2         81.9800   66.8000   -7.5200 H        1 MOL1       0.0379
     17 H3         82.7000   68.4300   -7.4700 H        1 MOL1       0.0379
     18 H4         81.2200   65.4900  -10.0500 H        1 MOL1       0.0630
     19 H5         77.9200   68.6900  -11.7300 H        1 MOL1       0.0643
     20 H6         79.6400   64.8400  -11.7800 H        1 MOL1       0.0623
     21 H7         78.0100   66.4200  -12.6100 H        1 MOL1       0.0623
@<TRIPOS>BOND
     1     1    13    1
     2     2    13    1
     3     3     6    1
     4     3     7    1
     5     3    14    1
     6     4     5    1
     7     4     6   ar
     8     4     9   ar
     9     5     7    2
    10     5     8    1
    11     6    10   ar
    12     7    15    1
    13     8    13    1
    14     8    16    1
    15     8    17    1
    16     9    11   ar
    17     9    18    1
    18    10    12   ar
    19    10    19    1
    20    11    12   ar
    21    11    20    1
    22    12    21    1
