@<TRIPOS>MOLECULE
    MOL
   21    22     0     0     0
SMALL
USER_CHARGES

@<TRIPOS>ATOM
      1 O          85.0100   66.9800   -7.5300 O.co2    1 MOL1      -0.5498
      2 O1         84.7200   68.6800   -9.0100 O.co2    1 MOL1      -0.5498
      3 N          80.9300   70.2800   -9.7100 N.pl3    1 MOL1      -0.3203
      4 C          80.9500   68.0600   -9.8800 C.ar     1 MOL1       0.0006
      5 C1         81.8900   68.4600   -8.8900 C.2      1 MOL1      -0.0194
      6 C2         80.3600   69.2200  -10.3800 C.ar     1 MOL1       0.0374
      7 C3         81.8600   69.8300   -8.8100 C.2      1 MOL1      -0.0030
      8 C4         82.7500   67.5700   -8.0900 C.3      1 MOL1       0.0140
      9 C5         80.5400   66.8100  -10.4000 C.ar     1 MOL1      -0.0528
     10 C6         79.3800   69.2000  -11.3800 C.ar     1 MOL1      -0.0402
     11 C7         79.5600   66.7800  -11.4000 C.ar     1 MOL1      -0.0615
     12 C8         78.9900   67.9600  -11.8800 C.ar     1 MOL1      -0.0604
     13 C9         84.2400   67.8200   -8.2700 C.2      1 MOL1       0.0458
     14 H          80.7000   71.2300   -9.8600 H        1 MOL1       0.1522
     15 H1         82.4300   70.4200   -8.1800 H        1 MOL1       0.0793
     16 H2         82.5500   66.5600   -8.3600 H        1 MOL1       0.0379
     17 H3         82.5300   67.7700   -7.0600 H        1 MOL1       0.0379
     18 H4         80.9600   65.9400  -10.0500 H        1 MOL1       0.0630
     19 H5         78.9600   70.0800  -11.7300 H        1 MOL1       0.0643
     20 H6         79.2500   65.8700  -11.7800 H        1 MOL1       0.0623
     21 H7         78.2700   67.9100  -12.6100 H        1 MOL1       0.0623
@<TRIPOS>BOND
     1     1    13    1
     2     2    13    1
     3     3     6    1
     4     3     7    1
     5     3    14    1
     6     4     5    1
     7     4     6   ar
     8     4     9   ar
     9     5     7    2
    10     5     8    1
    11     6    10   ar
    12     7    15    1
    13     8    13    1
    14     8    16    1
    15     8    17    1
    16     9    11   ar
    17     9    18    1
    18    10    12   ar
    19    10    19    1
    20    11    12   ar
    21    11    20    1
    22    12    21    1
